Version 4
SHEET 1 880 680
WIRE -48 -32 -112 -32
WIRE 176 48 0 48
WIRE 224 48 176 48
WIRE 352 48 304 48
WIRE 464 48 352 48
WIRE -112 64 -112 -32
WIRE 0 64 0 48
WIRE -48 80 -48 -32
WIRE 176 80 176 48
WIRE 464 80 464 48
WIRE 352 96 352 48
WIRE 0 160 0 144
WIRE -112 176 -112 144
WIRE -48 176 -48 128
WIRE -48 176 -112 176
WIRE 176 176 176 144
WIRE 176 176 112 176
WIRE 352 176 352 160
WIRE 352 176 176 176
WIRE 464 176 464 160
WIRE 464 176 352 176
WIRE 176 208 176 176
WIRE -48 272 -48 176
WIRE 0 272 0 240
WIRE 0 272 -48 272
WIRE 112 272 112 176
WIRE 112 272 0 272
FLAG 176 208 0
SYMBOL cap 336 96 R0
SYMATTR InstName C1
SYMATTR Value 50µ
SYMBOL ind 208 64 R270
WINDOW 0 32 56 VTop 2
WINDOW 3 5 56 VBottom 2
SYMATTR InstName L1
SYMATTR Value 50m
SYMBOL res 448 64 R0
SYMATTR InstName R1
SYMATTR Value 10
SYMBOL diode 192 144 R180
WINDOW 0 24 64 Left 2
WINDOW 3 24 0 Left 2
SYMATTR InstName D1
SYMBOL voltage -112 48 R0
WINDOW 123 0 0 Left 2
WINDOW 39 0 0 Left 2
SYMATTR InstName V1
SYMATTR Value PULSE(0 10 0 0 0 5ms 10ms)
SYMBOL sw 0 160 M180
SYMATTR InstName S1
SYMATTR Value ""
SYMATTR SpiceModel SWITCH
SYMBOL voltage 0 144 R0
WINDOW 123 0 0 Left 2
WINDOW 39 0 0 Left 2
SYMATTR InstName V2
SYMATTR Value 10
TEXT 24 240 Left 2 !.tran 100ms
TEXT -112 -64 Left 2 !.model SWITCH SW(Ron=1p Roff=10MEG Vt=5V Vh=0V)
